CM 
CE
GW	1	9	0	-0.8	-0.241800	0	-0.8	0.241800	0.000100
GW	2	9	0	-0.6	-0.241800	0	-0.6	0.241800	0.000100
GW	3	9	0	-0.4	-0.241800	0	-0.4	0.241800	0.000100
GW	4	9	0	-0.2	-0.241800	0	-0.2	0.241800	0.000100
GW	5	9	0	0	-0.241800	0	0	0.241800	0.000100
GW	6	9	0	0.2	-0.241800	0	0.2	0.241800	0.000100
GW	7	9	0	0.4	-0.241800	0	0.4	0.241800	0.000100
GW	8	9	0	0.6	-0.241800	0	0.6	0.241800	0.000100
GW	9	9	0	0.8	-0.241800	0	0.8	0.241800	0.000100
GW	100	9	ex_x	ex_y	-0.241800	ex_x	ex_y	0.241800	0.0150
GE	0
LD	4	1	5	5	50	0
LD	4	2	5	5	50	0
LD	4	3	5	5	50	0
LD	4	4	5	5	50	0
LD	4	5	5	5	50	0
LD	4	6	5	5	50	0
LD	4	7	5	5	50	0
LD	4	8	5	5	50	0
LD	4	9	5	5	50	0
GN	-1
EK
EX	0	100	5	0	vr1	0	0
FR	0	0	0	0	430.0000	0
EN
